/*--------------------------------*- C++ -*----------------------------------*\
| =========                 |                                                 |
| \\      /  F ield         | OpenFOAM: The Open Source CFD Toolbox           |
|  \\    /   O peration     | Version:  v2406                                 |
|   \\  /    A nd           | Website:  www.openfoam.com                      |
|    \\/     M anipulation  |                                                 |
\*---------------------------------------------------------------------------*/
FoamFile
{
    version     2.0;
    format      ascii;
    class       volScalarField;
    object      epsilon;
}
// * * * * * * * * * * * * * * * * * * * * * * * * * * * * * * * * * * * * * //

dimensions      [0 2 -3 0 0 0 0];

internalField   uniform 0.01;

boundaryField
{
    #include            "include/ABLConditions"

    inlet
    {
        type       fixedProfile;
        profile    csvFile;

        profileCoeffs
        {
            nHeaderLine         0;          // Number of header lines
            refColumn           0;          // Reference column index
            componentColumns    (1);    // Component column indices
            separator           ",";        // Optional (defaults to ",")
            mergeSeparators     no;         // Merge multiple separators
            file                "$FOAM_CASE/constant/menEpsProf.csv";  // name of csv data file
            outOfBounds         clamp;      // Optional out-of-bounds handling
            interpolationScheme linear;     // Optional interpolation scheme
        }
        direction        (0 0 1);
        origin           0;
    }

    ground
    {
        type            epsilonWallFunction;
        Cmu             $Cmu;
        kappa           $kappa;
        value           $internalField;
    }

    frontAndBack
    {
        type            symmetry;
    }

    Top
    {
        type            zeroGradient;
    }

    outlet
    {
        type            inletOutlet;
        inletValue      $internalField;
        value           $internalField;
    }
}

// ************************************************************************* //
