/*--------------------------------*- C++ -*----------------------------------*\
| =========                 |                                                 |
| \\      /  F ield         | OpenFOAM: The Open Source CFD Toolbox           |
|  \\    /   O peration     | Version:  2406                                  |
|   \\  /    A nd           | Website:  www.openfoam.com                      |
|    \\/     M anipulation  |                                                 |
\*---------------------------------------------------------------------------*/
FoamFile
{
    version     2.0;
    format      binary;
    arch        "LSB;label=32;scalar=64";
    class       polyBoundaryMesh;
    location    "constant/polyMesh";
    object      boundary;
}
// * * * * * * * * * * * * * * * * * * * * * * * * * * * * * * * * * * * * * //

6
(
    inlet
    {
        type            patch;
        nFaces          1755;
        startFace       1221213;
    }
    outlet
    {
        type            patch;
        nFaces          1755;
        startFace       1222968;
    }
    ground
    {
        type            wall;
        inGroups        1(wall);
        nFaces          8356;
        startFace       1224723;
    }
    frontAndBack
    {
        type            symmetry;
        inGroups        1(symmetry);
        nFaces          4680;
        startFace       1233079;
    }
    Top
    {
        type            wall;
        inGroups        1(wall);
        nFaces          2700;
        startFace       1237759;
    }
    Prism1M
    {
        type            wall;
        inGroups        1(wall);
        nFaces          3572;
        startFace       1240459;
    }
)

// ************************************************************************* //
